@<TRIPOS>MOLECULE
ucer2
129 128 1 0 1
SMALL
USER_CHARGES
@<TRIPOS>CRYSIN
   12.1795     9.1432    38.0937    90.0000    90.0000    90.0000  1  1
@<TRIPOS>ATOM
       1 NH1         -2.3400    -0.5390     0.0220 NH1           1 ucer2     -0.530000
       2 HN1         -2.1730    -1.2170     0.8020 HN1           1 ucer2      0.260000
       3 CLN         -2.3970    -1.2760    -1.2510 CLN           1 ucer2      0.580000
       4 OBL         -3.3530    -2.2890    -1.1340 OBL           1 ucer2     -0.530000
       5 CTL2        -2.7520    -0.3660    -2.4430 CTL2          1 ucer2     -0.260000
       6 HAL2        -1.9190     0.3390    -2.6170 HAL2          1 ucer2      0.130000
       7 HAL2        -3.6740     0.2170    -2.2280 HAL2          1 ucer2      0.130000
       8 CTL2        -2.9450    -1.1600    -3.7380 CTL2          1 ucer2     -0.180000
       9 HAL2        -2.0660    -1.8220    -3.8980 HAL2          1 ucer2      0.090000
      10 HAL2        -3.8580    -1.7910    -3.6560 HAL2          1 ucer2      0.090000
      11 CTL2        -3.0600    -0.2090    -4.9360 CTL2          1 ucer2     -0.180000
      12 HAL2        -3.9040     0.5010    -4.7910 HAL2          1 ucer2      0.090000
      13 HAL2        -2.1200     0.3790    -5.0090 HAL2          1 ucer2      0.090000
      14 CTL2        -3.2700    -0.9880    -6.2350 CTL2          1 ucer2     -0.180000
      15 HAL2        -2.4750    -1.7590    -6.3410 HAL2          1 ucer2      0.090000
      16 HAL2        -4.2590    -1.4940    -6.1970 HAL2          1 ucer2      0.090000
      17 CTL2        -3.1940    -0.0530    -7.4460 CTL2          1 ucer2     -0.180000
      18 HAL2        -3.9450     0.7620    -7.3490 HAL2          1 ucer2      0.090000
      19 HAL2        -2.1790     0.4000    -7.4830 HAL2          1 ucer2      0.090000
      20 CTL2        -3.4550    -0.8270    -8.7400 CTL2          1 ucer2     -0.180000
      21 HAL2        -2.7450    -1.6800    -8.8160 HAL2          1 ucer2      0.090000
      22 HAL2        -4.4940    -1.2250    -8.7180 HAL2          1 ucer2      0.090000
      23 CTL2        -3.2690     0.0750    -9.9630 CTL2          1 ucer2     -0.180000
      24 HAL2        -3.9430     0.9570    -9.8870 HAL2          1 ucer2      0.090000
      25 HAL2        -2.2170     0.4320    -9.9900 HAL2          1 ucer2      0.090000
      26 CTL2        -3.5870    -0.6910   -11.2490 CTL2          1 ucer2     -0.180000
      27 HAL2        -2.9410    -1.5960   -11.3130 HAL2          1 ucer2      0.090000
      28 HAL2        -4.6520    -1.0120   -11.2250 HAL2          1 ucer2      0.090000
      29 CTL2        -3.3410     0.1830   -12.4800 CTL2          1 ucer2     -0.180000
      30 HAL2        -3.9590     1.1050   -12.4150 HAL2          1 ucer2      0.090000
      31 HAL2        -2.2680     0.4740   -12.5080 HAL2          1 ucer2      0.090000
      32 CTL2        -3.7000    -0.5750   -13.7600 CTL2          1 ucer2     -0.180000
      33 HAL2        -3.1040    -1.5120   -13.8160 HAL2          1 ucer2      0.090000
      34 HAL2        -4.7810    -0.8380   -13.7360 HAL2          1 ucer2      0.090000
      35 CTL2        -3.4080     0.2770   -14.9970 CTL2          1 ucer2     -0.180000
      36 HAL2        -3.9840     1.2270   -14.9430 HAL2          1 ucer2      0.090000
      37 HAL2        -2.3240     0.5190   -15.0210 HAL2          1 ucer2      0.090000
      38 CTL2        -3.7920    -0.4740   -16.2750 CTL2          1 ucer2     -0.180000
      39 HAL2        -3.2370    -1.4380   -16.3180 HAL2          1 ucer2      0.090000
      40 HAL2        -4.8840    -0.6880   -16.2580 HAL2          1 ucer2      0.090000
      41 CTL2        -3.4500     0.3540   -17.5160 CTL2          1 ucer2     -0.180000
      42 HAL2        -3.9840     1.3290   -17.4740 HAL2          1 ucer2      0.090000
      43 HAL2        -2.3570     0.5480   -17.5300 HAL2          1 ucer2      0.090000
      44 CTL2        -3.8540    -0.3880   -18.7930 CTL2          1 ucer2     -0.180000
      45 HAL2        -3.3470    -1.3780   -18.8260 HAL2          1 ucer2      0.090000
      46 HAL2        -4.9550    -0.5490   -18.7850 HAL2          1 ucer2      0.090000
      47 CTL2        -3.4620     0.4150   -20.0370 CTL2          1 ucer2     -0.180000
      48 HAL2        -3.9400     1.4190   -19.9970 HAL2          1 ucer2      0.090000
      49 HAL2        -2.3580     0.5450   -20.0530 HAL2          1 ucer2      0.090000
      50 CTL2        -3.9090    -0.3020   -21.3130 CTL2          1 ucer2     -0.180000
      51 HAL2        -3.4530    -1.3160   -21.3510 HAL2          1 ucer2      0.090000
      52 HAL2        -5.0160    -0.4070   -21.2990 HAL2          1 ucer2      0.090000
      53 CTL2        -3.4870     0.4860   -22.5570 CTL2          1 ucer2     -0.180000
      54 HAL2        -3.9190     1.5100   -22.5090 HAL2          1 ucer2      0.090000
      55 HAL2        -2.3770     0.5660   -22.5820 HAL2          1 ucer2      0.090000
      56 CTL2        -3.9810    -0.2050   -23.8320 CTL2          1 ucer2     -0.180000
      57 HAL2        -5.0910    -0.2700   -23.8000 HAL2          1 ucer2      0.090000
      58 HAL2        -3.5620    -1.2340   -23.8840 HAL2          1 ucer2      0.090000
      59 CTL2        -3.5560     0.5780   -25.0800 CTL2          1 ucer2     -0.180000
      60 HAL2        -2.4460     0.6270   -25.1230 HAL2          1 ucer2      0.090000
      61 HAL2        -3.9590     1.6140   -25.0180 HAL2          1 ucer2      0.090000
      62 CTL2        -4.0910    -0.0920   -26.3500 CTL2          1 ucer2     -0.180000
      63 HAL2        -5.2020    -0.1330   -26.2980 HAL2          1 ucer2      0.090000
      64 HAL2        -3.6970    -1.1300   -26.4140 HAL2          1 ucer2      0.090000
      65 CTL2        -3.6730     0.6880   -27.6010 CTL2          1 ucer2     -0.180000
      66 HAL2        -2.5630     0.7200   -27.6600 HAL2          1 ucer2      0.090000
      67 HAL2        -4.0580     1.7300   -27.5310 HAL2          1 ucer2      0.090000
      68 CTL2        -4.2330     0.0290   -28.8660 CTL2          1 ucer2     -0.180000
      69 HAL2        -5.3430     0.0000   -28.8110 HAL2          1 ucer2      0.090000
      70 HAL2        -3.8530    -1.0130   -28.9460 HAL2          1 ucer2      0.090000
      71 CTL3        -3.8230     0.8000   -30.1170 CTL3          1 ucer2     -0.300000
      72 HAL3        -4.2090     1.8410   -30.0720 HAL3          1 ucer2      0.100000
      73 HAL3        -4.2440     0.3030   -31.0150 HAL3          1 ucer2      0.100000
      74 HAL3        -2.7160     0.8250   -30.2090 HAL3          1 ucer2      0.100000
      75 CTL1        -1.3310     0.5380     0.0900 CTL1          1 ucer2      0.030000
      76 HAL1        -1.4680     1.2360    -0.7590 HAL1          1 ucer2      0.120000
      77 CTL2        -1.6460     1.4130     1.3190 CTL2          1 ucer2      0.060000
      78 HAL2        -1.5530     0.7960     2.2430 HAL2          1 ucer2      0.105000
      79 HAL2        -0.9300     2.2650     1.3600 HAL2          1 ucer2      0.105000
      80 OHL         -2.9510     1.9140     1.2190 OHL           1 ucer2     -0.560000
      81 HOL         -3.1350     2.3760     2.0790 HOL           1 ucer2      0.340000
      82 CTL1         0.1430    -0.0120     0.0940 CTL1          1 ucer2      0.150000
      83 HAL1         0.1350    -1.1230    -0.0120 HAL1          1 ucer2      0.090000
      84 OHL          0.7830     0.3030     1.3090 OHL           1 ucer2     -0.560000
      85 HOL          1.5480    -0.3220     1.4060 HOL           1 ucer2      0.340000
      86 CEL1         0.9480     0.6040    -1.0650 CEL1          1 ucer2     -0.090000
      87 HEL1         2.0430     0.5640    -0.8730 HEL1          1 ucer2      0.090000
      88 CEL1         0.7000    -0.1660    -2.3630 CEL1          1 ucer2     -0.090000
      89 HEL1         1.2910    -1.1090    -2.3340 HEL1          1 ucer2      0.090000
      90 CTL2         1.0140     0.6600    -3.6090 CTL2          1 ucer2     -0.180000
      91 HAL2         0.2790     1.4930    -3.6570 HAL2          1 ucer2      0.090000
      92 HAL2         2.0400     1.0840    -3.5580 HAL2          1 ucer2      0.090000
      93 CTL2         0.8950    -0.2240    -4.8580 CTL2          1 ucer2     -0.180000
      94 HAL2         1.6960    -0.9950    -4.8300 HAL2          1 ucer2      0.090000
      95 HAL2        -0.0850    -0.7430    -4.8530 HAL2          1 ucer2      0.090000
      96 CTL2         1.0000     0.5930    -6.1510 CTL2          1 ucer2     -0.180000
      97 HAL2         0.1670     1.3310    -6.1740 HAL2          1 ucer2      0.090000
      98 HAL2         1.9660     1.1420    -6.1770 HAL2          1 ucer2      0.090000
      99 CTL2         0.8980    -0.3240    -7.3780 CTL2          1 ucer2     -0.180000
     100 HAL2         1.7510    -1.0380    -7.3700 HAL2          1 ucer2      0.090000
     101 HAL2        -0.0500    -0.9030    -7.3270 HAL2          1 ucer2      0.090000
     102 CTL2         0.9150     0.4820    -8.6820 CTL2          1 ucer2     -0.180000
     103 HAL2         0.0560     1.1890    -8.6840 HAL2          1 ucer2      0.090000
     104 HAL2         1.8590     1.0670    -8.7440 HAL2          1 ucer2      0.090000
     105 CTL2         0.8070    -0.4450    -9.9000 CTL2          1 ucer2     -0.180000
     106 HAL2         1.6660    -1.1510    -9.9020 HAL2          1 ucer2      0.090000
     107 HAL2        -0.1360    -1.0310    -9.8310 HAL2          1 ucer2      0.090000
     108 CTL2         0.8100     0.3580   -11.2060 CTL2          1 ucer2     -0.180000
     109 HAL2        -0.0400     1.0750   -11.2010 HAL2          1 ucer2      0.090000
     110 HAL2         1.7600     0.9320   -11.2800 HAL2          1 ucer2      0.090000
     111 CTL2         0.6780    -0.5680   -12.4230 CTL2          1 ucer2     -0.180000
     112 HAL2         1.5200    -1.2940   -12.4270 HAL2          1 ucer2      0.090000
     113 HAL2        -0.2790    -1.1310   -12.3510 HAL2          1 ucer2      0.090000
     114 CTL2         0.7010     0.2350   -13.7290 CTL2          1 ucer2     -0.180000
     115 HAL2        -0.1260     0.9790   -13.7220 HAL2          1 ucer2      0.090000
     116 HAL2         1.6680     0.7810   -13.8020 HAL2          1 ucer2      0.090000
     117 CTL2         0.5400    -0.6830   -14.9460 CTL2          1 ucer2     -0.180000
     118 HAL2         1.3560    -1.4390   -14.9490 HAL2          1 ucer2      0.090000
     119 HAL2        -0.4360    -1.2110   -14.8800 HAL2          1 ucer2      0.090000
     120 CTL2         0.6010     0.1220   -16.2500 CTL2          1 ucer2     -0.180000
     121 HAL2        -0.1990     0.8950   -16.2460 HAL2          1 ucer2      0.090000
     122 HAL2         1.5870     0.6330   -16.3160 HAL2          1 ucer2      0.090000
     123 CTL2         0.4170    -0.7880   -17.4700 CTL2          1 ucer2     -0.180000
     124 HAL2         1.2070    -1.5690   -17.4780 HAL2          1 ucer2      0.090000
     125 HAL2        -0.5760    -1.2850   -17.4170 HAL2          1 ucer2      0.090000
     126 CTL3         0.5070     0.0110   -18.7670 CTL3          1 ucer2     -0.300000
     127 HAL3         0.3570    -0.6670   -19.6340 HAL3          1 ucer2      0.100000
     128 HAL3        -0.2730     0.8000   -18.7920 HAL3          1 ucer2      0.100000
     129 HAL3         1.5050     0.4900   -18.8560 HAL3          1 ucer2      0.100000
@<TRIPOS>BOND
       1       38       39 1
       2      117      118 1
       3       77       75 1
       4       59       60 1
       5        3        1 1
       6        2        1 1
       7       26       29 1
       8       41       43 1
       9      120      122 1
      10       62       64 1
      11       11       13 1
      12       44       45 1
      13       65       66 1
      14      123      124 1
      15       26       27 1
      16       68       69 1
      17       90       91 1
      18       47       48 1
      19      126      127 1
      20       93       95 1
      21       71       73 1
      22       41       44 1
      23      120      123 1
      24       62       65 1
      25       96       98 1
      26      108      110 1
      27      105      107 1
      28       35       32 1
      29       77       79 1
      30       56       57 1
      31      114      115 1
      32       35       36 1
      33        8       10 1
      34       17       18 1
      35       11       12 1
      36       77       80 1
      37       34       32 1
      38      102      105 1
      39       17       19 1
      40       44       47 1
      41      123      126 1
      42       65       68 1
      43       55       53 1
      44      108      111 1
      45      105      108 1
      46       75       76 1
      47       14       15 1
      48       88       90 1
      49       90       92 1
      50       47       49 1
      51      126      128 1
      52       68       70 1
      53        8       11 1
      54      126      129 1
      55       47       50 1
      56       90       93 1
      57       68       71 1
      58       96       99 1
      59        3        4 1
      60       80       81 1
      61       65       67 1
      62      123      125 1
      63       44       46 1
      64       26       28 1
      65       99      102 1
      66       32       29 1
      67       75        1 1
      68        5        8 1
      69       56       58 1
      70       35       37 1
      71      114      116 1
      72       23       24 1
      73       50       51 1
      74      117      120 1
      75       38       41 1
      76       93       94 1
      77       59       62 1
      78       71       72 1
      79       20       23 1
      80      111      112 1
      81        5        6 1
      82       20       21 1
      83       56       53 1
      84       23       26 1
      85      111      114 1
      86       82       83 1
      87       50       52 1
      88       78       77 1
      89       38       40 1
      90       59       61 1
      91      117      119 1
      92      102      103 1
      93       20       22 1
      94       14       17 1
      95      105      106 1
      96       99      101 1
      97        5        7 1
      98       33       32 1
      99       23       25 1
     100       99      100 1
     101       17       20 1
     102       82       84 1
     103       11       14 1
     104       86       87 1
     105       14       16 1
     106       71       74 1
     107      102      104 1
     108       93       96 1
     109       50       53 1
     110       88       89 1
     111      108      109 1
     112       82       86 1
     113      111      113 1
     114        3        5 1
     115       84       85 1
     116       62       63 1
     117       41       42 1
     118      120      121 1
     119       54       53 1
     120        8        9 1
     121       96       97 1
     122       56       59 1
     123      114      117 1
     124       35       38 1
     125       86       88 1
     126       29       30 1
     127       82       75 1
     128       31       29 1
@<TRIPOS>SUBSTRUCTURE
       1 ucer2           1 RESIDUE    0 **** ROOT      0
