@<TRIPOS>MOLECULE
chol
74 77 1 0 1
SMALL
USER_CHARGES
@<TRIPOS>CRYSIN
   10.3580     9.5026    23.5708    90.0000    90.0000    90.0000  1  1
@<TRIPOS>ATOM
       1 CTL1       -0.0750    -0.0350     0.1330 CTL1          1 chol      -0.008000
       2 HAL1        0.5220    -0.9580    -0.0640 HAL1          1 chol       0.180000
       3 OHL        -0.2070     0.1550     1.5160 OHL           1 chol      -0.566000
       4 HOL         0.6960     0.0240     1.9100 HOL           1 chol       0.394000
       5 CTL2       -1.4650    -0.2360    -0.4860 CTL2          1 chol      -0.162000
       6 HAL2       -2.1160     0.6290    -0.2450 HAL2          1 chol       0.081000
       7 HAL2       -1.9390    -1.1380    -0.0410 HAL2          1 chol       0.081000
       8 CTL2       -1.3570    -0.4240    -2.0120 CTL2          1 chol      -0.162000
       9 HAL2       -2.3770    -0.5810    -2.4200 HAL2          1 chol       0.081000
      10 HAL2       -0.7710    -1.3530    -2.1920 HAL2          1 chol       0.081000
      11 CTL1       -0.6470     0.7700    -2.7220 CTL1          1 chol       0.087000
      12 CTL3       -1.5230     2.0550    -2.6030 CTL3          1 chol      -0.144000
      13 HAL3       -1.7100     2.3510    -1.5550 HAL3          1 chol       0.048000
      14 HAL3       -2.5210     1.9020    -3.0590 HAL3          1 chol       0.048000
      15 HAL3       -1.0480     2.9300    -3.0850 HAL3          1 chol       0.048000
      16 CEL1        0.7360     0.9640    -2.0240 CEL1          1 chol      -0.092000
      17 CTL2        0.6300     1.1720    -0.5030 CTL2          1 chol      -0.200000
      18 HAL2        1.6500     1.2550    -0.0700 HAL2          1 chol       0.100000
      19 HAL2        0.0890     2.1120    -0.2680 HAL2          1 chol       0.100000
      20 CEL1        1.5700     2.0580    -2.6930 CEL1          1 chol      -0.083000
      21 HEL1        2.5410     2.1760    -2.1650 HEL1          1 chol       0.088000
      22 CTL2        1.8520     1.6640    -4.1390 CTL2          1 chol      -0.187000
      23 HAL2        2.4710     2.4600    -4.6040 HAL2          1 chol       0.103000
      24 HAL2        2.4350     0.7150    -4.1510 HAL2          1 chol       0.091000
      25 CTL1        0.5380     1.4900    -4.9230 CTL1          1 chol      -0.190000
      26 HAL1        0.0250     2.4710    -4.9450 HAL1          1 chol       0.183000
      27 CTL1       -0.3640     0.4100    -4.2340 CTL1          1 chol      -0.159000
      28 HAL1        0.2180    -0.5400    -4.2400 HAL1          1 chol       0.104000
      29 CTL2       -1.6490     0.1440    -5.0790 CTL2          1 chol       0.036000
      30 HAL2       -2.3120     1.0280    -5.0740 HAL2          1 chol       0.012000
      31 HAL2       -2.2230    -0.7000    -4.6470 HAL2          1 chol       0.007000
      32 CTL2       -1.3140    -0.2200    -6.5440 CTL2          1 chol       0.036000
      33 HAL2       -2.2630    -0.4140    -7.0720 HAL2          1 chol      -0.018000
      34 HAL2       -0.7390    -1.1720    -6.5350 HAL2          1 chol      -0.018000
      35 CTL1       -0.4630     0.8910    -7.2280 CTL1          1 chol       0.083000
      36 CTL3       -1.2980     2.2050    -7.3810 CTL3          1 chol      -0.018000
      37 HAL3       -1.6490     2.6130    -6.4160 HAL3          1 chol       0.006000
      38 HAL3       -2.1990     2.0140    -7.9970 HAL3          1 chol       0.006000
      39 HAL3       -0.7360     3.0140    -7.8870 HAL3          1 chol       0.006000
      40 CTL1        0.8210     1.0430    -6.3740 CTL1          1 chol      -0.204000
      41 HAL1        1.3360     0.0510    -6.3260 HAL1          1 chol       0.121000
      42 CTL2        1.7060     1.9380    -7.2220 CTL2          1 chol      -0.134000
      43 HAL2        1.3230     2.9750    -7.1230 HAL2          1 chol       0.067000
      44 HAL2        2.7800     1.9560    -6.9430 HAL2          1 chol       0.067000
      45 CTL2        1.4420     1.4480    -8.6540 CTL2          1 chol      -0.108000
      46 HAL2        1.2810     2.3530    -9.2810 HAL2          1 chol       0.054000
      47 HAL2        2.2990     0.8710    -9.0640 HAL2          1 chol       0.054000
      48 CTL1        0.1920     0.5150    -8.5940 CTL1          1 chol      -0.075000
      49 HAL1        0.5870    -0.5200    -8.4500 HAL1          1 chol       0.063000
      50 CTL1       -0.6320     0.5390    -9.9300 CTL1          1 chol      -0.017000
      51 HAL1       -0.9780     1.5810   -10.1090 HAL1          1 chol       0.029000
      52 CTL3       -1.8700    -0.3720    -9.8690 CTL3          1 chol      -0.144000
      53 HAL3       -2.4440    -0.3430   -10.8140 HAL3          1 chol       0.048000
      54 HAL3       -2.5840    -0.0140    -9.1110 HAL3          1 chol       0.048000
      55 HAL3       -1.5770    -1.4220    -9.6540 HAL3          1 chol       0.048000
      56 CTL2        0.2870     0.1290   -11.1180 CTL2          1 chol       0.042000
      57 HAL2        1.1820     0.7840   -11.1250 HAL2          1 chol      -0.021000
      58 HAL2        0.6280    -0.9210   -10.9800 HAL2          1 chol      -0.021000
      59 CTL2       -0.3580     0.2930   -12.5050 CTL2          1 chol       0.010000
      60 HAL2       -1.2330    -0.3780   -12.6150 HAL2          1 chol      -0.005000
      61 HAL2       -0.6890     1.3480   -12.6110 HAL2          1 chol      -0.005000
      62 CTL2        0.6540    -0.0590   -13.6080 CTL2          1 chol      -0.014000
      63 HAL2        0.9790    -1.1100   -13.4380 HAL2          1 chol       0.007000
      64 HAL2        1.5490     0.5980   -13.5230 HAL2          1 chol       0.007000
      65 CTL1        0.0730     0.0440   -15.0360 CTL1          1 chol      -0.007000
      66 HAL1       -0.8290    -0.6030   -15.1060 HAL1          1 chol       0.007000
      67 CTL3       -0.3190     1.4840   -15.4050 CTL3          1 chol       0.033000
      68 HAL3       -0.7170     1.5150   -16.4420 HAL3          1 chol      -0.011000
      69 HAL3        0.5630     2.1580   -15.3430 HAL3          1 chol      -0.011000
      70 HAL3       -1.1160     1.8690   -14.7380 HAL3          1 chol      -0.011000
      71 CTL3        1.1040    -0.4780   -16.0450 CTL3          1 chol       0.054000
      72 HAL3        0.6860    -0.4480   -17.0740 HAL3          1 chol      -0.018000
      73 HAL3        1.3670    -1.5330   -15.8140 HAL3          1 chol      -0.018000
      74 HAL3        2.0310     0.1350   -16.0160 HAL3          1 chol      -0.018000
@<TRIPOS>BOND
       1       56       57 1
       2       32       34 1
       3       62       65 1
       4       50       51 1
       5        5        7 1
       6        1       17 1
       7       40       41 1
       8       11       16 1
       9       23       22 1
      10        5        6 1
      11        3        4 1
      12       42       44 1
      13        8       10 1
      14       67       70 1
      15        8       11 1
      16       25       22 1
      17        5        1 1
      18       27       28 1
      19       36       37 1
      20       50       52 1
      21       40       35 1
      22       12       15 1
      23       29       30 1
      24       59       61 1
      25        8        9 1
      26       48       35 1
      27       59       60 1
      28       35       36 1
      29       65       67 1
      30       62       63 1
      31       12       13 1
      32       40       25 1
      33       16       20 1
      34       32       35 1
      35       65       66 1
      36       52       53 1
      37        2        1 1
      38        3        1 1
      39       48       49 1
      40       67       68 1
      41       17       19 1
      42       56       58 1
      43       71       74 1
      44        5        8 1
      45       59       62 1
      46       32       33 1
      47       11       12 1
      48       67       69 1
      49       71       73 1
      50       27       29 1
      51       48       50 1
      52       71       72 1
      53       50       56 1
      54       29       32 1
      55       22       20 1
      56       62       64 1
      57       12       14 1
      58       45       48 1
      59       25       26 1
      60       45       46 1
      61       40       42 1
      62       65       71 1
      63       38       36 1
      64       29       31 1
      65       42       45 1
      66       24       22 1
      67       52       55 1
      68       25       27 1
      69       21       20 1
      70       42       43 1
      71       45       47 1
      72       11       27 1
      73       56       59 1
      74       18       17 1
      75       52       54 1
      76       39       36 1
      77       16       17 1
@<TRIPOS>SUBSTRUCTURE
       1 chol            1 RESIDUE    0 **** ROOT      0
