@<TRIPOS>MOLECULE
ffa24
74 73 1 0 1
SMALL
USER_CHARGES
@<TRIPOS>CRYSIN
    8.6161     8.2898    33.9535    90.0000    90.0000    90.0000  1  1
@<TRIPOS>ATOM
       1 CTL3         0.0100     0.0670   -27.9960 CTL3          1 ffa24     -0.270000
       2 CTL2         0.6120     0.6360   -26.7150 CTL2          1 ffa24     -0.180000
       3 CTL2        -0.0740     0.0480   -25.4780 CTL2          1 ffa24     -0.180000
       4 CTL2         0.5340     0.6160   -24.1910 CTL2          1 ffa24     -0.180000
       5 CTL2        -0.1510     0.0180   -22.9590 CTL2          1 ffa24     -0.180000
       6 CTL2         0.4550     0.5780   -21.6690 CTL2          1 ffa24     -0.180000
       7 CTL2        -0.2290    -0.0310   -20.4410 CTL2          1 ffa24     -0.180000
       8 CTL2         0.3760     0.5220   -19.1480 CTL2          1 ffa24     -0.180000
       9 CTL2        -0.3090    -0.0940   -17.9250 CTL2          1 ffa24     -0.180000
      10 CTL2         0.2930     0.4550   -16.6300 CTL2          1 ffa24     -0.180000
      11 CTL2        -0.3980    -0.1580   -15.4100 CTL2          1 ffa24     -0.180000
      12 CTL2         0.2010     0.3920   -14.1150 CTL2          1 ffa24     -0.180000
      13 CTL2        -0.4960    -0.2140   -12.8950 CTL2          1 ffa24     -0.180000
      14 CTL2         0.0980     0.3460   -11.6010 CTL2          1 ffa24     -0.180000
      15 CTL2        -0.5970    -0.2530   -10.3770 CTL2          1 ffa24     -0.180000
      16 CTL2        -0.0040     0.3230    -9.0890 CTL2          1 ffa24     -0.180000
      17 CTL2        -0.6890    -0.2700    -7.8550 CTL2          1 ffa24     -0.180000
      18 CTL2        -0.0880     0.3200    -6.5770 CTL2          1 ffa24     -0.180000
      19 CTL2        -0.7510    -0.2720    -5.3300 CTL2          1 ffa24     -0.180000
      20 CTL2        -0.1320     0.3270    -4.0640 CTL2          1 ffa24     -0.180000
      21 CTL2        -0.7650    -0.2680    -2.8030 CTL2          1 ffa24     -0.180000
      22 CTL2        -0.1250     0.3320    -1.5480 CTL2          1 ffa24     -0.180000
      23 CTL2        -0.7330    -0.2690    -0.2760 CTL2          1 ffa24     -0.180000
      24 CL          -0.1030     0.3420     0.9750 CL            1 ffa24      0.890000
      25 OCL          1.2660     0.0710     1.0240 OCL           1 ffa24     -0.680000
      26 HL           1.6990     0.9610     0.9790 HL            1 ffa24      0.420000
      27 OBL         -0.7170    -0.1650     2.1210 OBL           1 ffa24     -0.630000
      28 HAL3         0.5240     0.5070   -28.8760 HAL3          1 ffa24      0.090000
      29 HAL3        -1.0720     0.3130   -28.0550 HAL3          1 ffa24      0.090000
      30 HAL3         0.1350    -1.0360   -28.0240 HAL3          1 ffa24      0.090000
      31 HAL2         0.4920     1.7410   -26.7200 HAL2          1 ffa24      0.090000
      32 HAL2         1.6970     0.3940   -26.6900 HAL2          1 ffa24      0.090000
      33 HAL2         0.0470    -1.0580   -25.4830 HAL2          1 ffa24      0.090000
      34 HAL2        -1.1590     0.2890   -25.5090 HAL2          1 ffa24      0.090000
      35 HAL2         0.4100     1.7220   -24.1820 HAL2          1 ffa24      0.090000
      36 HAL2         1.6200     0.3760   -24.1600 HAL2          1 ffa24      0.090000
      37 HAL2        -0.0270    -1.0880   -22.9710 HAL2          1 ffa24      0.090000
      38 HAL2        -1.2370     0.2570   -22.9880 HAL2          1 ffa24      0.090000
      39 HAL2         0.3290     1.6830   -21.6510 HAL2          1 ffa24      0.090000
      40 HAL2         1.5420     0.3400   -21.6390 HAL2          1 ffa24      0.090000
      41 HAL2        -0.1020    -1.1370   -20.4610 HAL2          1 ffa24      0.090000
      42 HAL2        -1.3150     0.2060   -20.4690 HAL2          1 ffa24      0.090000
      43 HAL2         0.2490     1.6270   -19.1250 HAL2          1 ffa24      0.090000
      44 HAL2         1.4630     0.2850   -19.1190 HAL2          1 ffa24      0.090000
      45 HAL2        -0.1830    -1.1990   -17.9490 HAL2          1 ffa24      0.090000
      46 HAL2        -1.3960     0.1440   -17.9550 HAL2          1 ffa24      0.090000
      47 HAL2         0.1690     1.5610   -16.6060 HAL2          1 ffa24      0.090000
      48 HAL2         1.3790     0.2150   -16.5980 HAL2          1 ffa24      0.090000
      49 HAL2        -0.2750    -1.2630   -15.4330 HAL2          1 ffa24      0.090000
      50 HAL2        -1.4840     0.0830   -15.4440 HAL2          1 ffa24      0.090000
      51 HAL2         0.0790     1.4980   -14.0950 HAL2          1 ffa24      0.090000
      52 HAL2         1.2860     0.1500   -14.0780 HAL2          1 ffa24      0.090000
      53 HAL2        -0.3730    -1.3200   -12.9100 HAL2          1 ffa24      0.090000
      54 HAL2        -1.5820     0.0260   -12.9340 HAL2          1 ffa24      0.090000
      55 HAL2        -0.0260     1.4510   -11.5900 HAL2          1 ffa24      0.090000
      56 HAL2         1.1840     0.1070   -11.5610 HAL2          1 ffa24      0.090000
      57 HAL2        -0.4680    -1.3580   -10.3820 HAL2          1 ffa24      0.090000
      58 HAL2        -1.6840    -0.0190   -10.4170 HAL2          1 ffa24      0.090000
      59 HAL2        -0.1370     1.4270    -9.0870 HAL2          1 ffa24      0.090000
      60 HAL2         1.0840     0.0920    -9.0510 HAL2          1 ffa24      0.090000
      61 HAL2        -0.5510    -1.3740    -7.8530 HAL2          1 ffa24      0.090000
      62 HAL2        -1.7770    -0.0440    -7.8900 HAL2          1 ffa24      0.090000
      63 HAL2        -0.2300     1.4240    -6.5810 HAL2          1 ffa24      0.090000
      64 HAL2         1.0020     0.1000    -6.5510 HAL2          1 ffa24      0.090000
      65 HAL2        -0.6050    -1.3750    -5.3260 HAL2          1 ffa24      0.090000
      66 HAL2        -1.8410    -0.0540    -5.3500 HAL2          1 ffa24      0.090000
      67 HAL2        -0.2840     1.4300    -4.0680 HAL2          1 ffa24      0.090000
      68 HAL2         0.9600     0.1160    -4.0580 HAL2          1 ffa24      0.090000
      69 HAL2        -0.6120    -1.3700    -2.8030 HAL2          1 ffa24      0.090000
      70 HAL2        -1.8570    -0.0570    -2.8010 HAL2          1 ffa24      0.090000
      71 HAL2        -0.2820     1.4330    -1.5440 HAL2          1 ffa24      0.090000
      72 HAL2         0.9680     0.1270    -1.5670 HAL2          1 ffa24      0.090000
      73 HAL2        -0.5810    -1.3710    -0.2670 HAL2          1 ffa24      0.090000
      74 HAL2        -1.8250    -0.0590    -0.2620 HAL2          1 ffa24      0.090000
@<TRIPOS>BOND
       1       16       59 1
       2       14       15 1
       3       24       27 1
       4        9       46 1
       5       21       20 1
       6       47       10 1
       7       69       21 1
       8       70       21 1
       9       10       11 1
      10       29        1 1
      11       30        1 1
      12        5        6 1
      13       73       23 1
      14        3        4 1
      15        4       35 1
      16        7        8 1
      17       24       25 1
      18        6       40 1
      19        8       43 1
      20       62       17 1
      21       25       26 1
      22        5       37 1
      23       13       54 1
      24        8       44 1
      25       18       19 1
      26        6        7 1
      27        3       33 1
      28        8        9 1
      29       14       55 1
      30       66       19 1
      31       12       51 1
      32       49       11 1
      33       65       19 1
      34       12       13 1
      35       72       22 1
      36       71       22 1
      37       48       10 1
      38        2        1 1
      39       21       22 1
      40       13       14 1
      41        7       42 1
      42       22       23 1
      43       63       18 1
      44       11       12 1
      45       20       19 1
      46        2        3 1
      47        9       45 1
      48       50       11 1
      49        4        5 1
      50        2       32 1
      51       13       53 1
      52       23       24 1
      53       14       56 1
      54       74       23 1
      55        2       31 1
      56        6       39 1
      57       16       60 1
      58       15       16 1
      59       67       20 1
      60       64       18 1
      61        5       38 1
      62        7       41 1
      63       28        1 1
      64       68       20 1
      65        9       10 1
      66       15       57 1
      67        3       34 1
      68       61       17 1
      69        4       36 1
      70       18       17 1
      71       12       52 1
      72       15       58 1
      73       16       17 1
@<TRIPOS>SUBSTRUCTURE
       1 ffa24           1 RESIDUE    0 **** ROOT      0
